
Spectre (R) Circuit Simulator
Version 23.1.0.773.isr16 64bit -- 8 Mar 2025
Copyright (C) 1989-2025 Cadence Design Systems, Inc. All rights reserved worldwide. Cadence and Spectre are registered trademarks of Cadence Design Systems, Inc. All others are the property of their respective holders.

Includes RSA BSAFE(R) Cryptographic or Security Protocol Software from RSA Security, Inc.

User: hee   Host: MrDonothing   HostID: 7F0101   PID: 3061
Memory  available: 14.9634 GB  physical: 16.5720 GB
Linux   : CentOS Linux release 7 (Core)
CPU Type: 13th Gen Intel(R) Core(TM) i9-13900H
All processors running at 2995.2 MHz
        Socket: Processors (Hyperthreaded Processor)
        0:       0 (  1 ),  1 (),  2 (  3 ),  3 (),  4 (  5 ),  5 (),  6 (  7 )
                 7 (),  8 (  9 ),  9 (), 10 ( 11 ), 11 (), 12 ( 13 ), 13 ()
                14 ( 15 ), 15 (), 16 ( 17 ), 17 (), 18 ( 19 ), 19 ()
        
System load averages (1min, 5min, 15min) : 0.0 %, 0.1 %, 0.0 %
Hyperthreading is enabled


Simulating `tb.scs' on MrDonothing at 6:58:00 AM, Sun Feb 22, 2026 (process id: 3061).
Current working directory: /home/hee/projects/agriculture-SoC/analog/cadence/notech/SoC/SoC_probe/cap_array_8b_tb
Command line:
    /opt/cadence/installs/SPECTRE231/tools.lnx86/bin/spectre -64 tb.scs

Licensing Information:
[06:58:00.295321] Configured Lic search path (22.01-s002): 5280@cadence.lic.sydney.edu.au

Licensing Information:
[06:58:00.191146] Periodic Lic check successful

Loading /opt/cadence/installs/SPECTRE231/tools.lnx86/cmi/lib/64bit/5.0/libinfineon_sh.so ...
Loading /opt/cadence/installs/SPECTRE231/tools.lnx86/cmi/lib/64bit/5.0/libphilips_I_sh.so ...
Loading /opt/cadence/installs/SPECTRE231/tools.lnx86/cmi/lib/64bit/5.0/libphilips_sh.so ...
Loading /opt/cadence/installs/SPECTRE231/tools.lnx86/cmi/lib/64bit/5.0/libsparam_sh.so ...
Loading /opt/cadence/installs/SPECTRE231/tools.lnx86/cmi/lib/64bit/5.0/libstmodels_sh.so ...
Reading file:  /home/hee/projects/agriculture-SoC/analog/cadence/notech/SoC/SoC_probe/cap_array_8b_tb/tb.scs
Reading file:  /opt/cadence/installs/SPECTRE231/tools.lnx86/spectre/etc/configs/spectre.cfg
Reading file:  /home/hee/projects/agriculture-SoC/analog/cadence/notech/SoC/SoC_probe/cap_array_8b_tb/veriloga/veriloga.va
Reading file:  /opt/cadence/installs/SPECTRE231/tools.lnx86/spectre/etc/ahdl/constants.vams
Reading file:  /opt/cadence/installs/SPECTRE231/tools.lnx86/spectre/etc/ahdl/disciplines.vams

Warning from spectre during AHDL read-in.
    WARNING (VACOMP-1142): "./veriloga/veriloga.va", line 205: (Archaic Syntax) Does not comply with the Accellera Verilog-AMS 2.0 Standard and beyond. To comply with the current standard, use `genvar' loop instead of `for', `while', and `repeat' loop statements for the `timer' function.
    WARNING (VACOMP-1142): "./veriloga/veriloga.va", line 216: (Archaic Syntax) Does not comply with the Accellera Verilog-AMS 2.0 Standard and beyond. To comply with the current standard, use `genvar' loop instead of `for', `while', and `repeat' loop statements for the `timer' function.

Reading file:  /home/hee/projects/agriculture-SoC/analog/cadence/notech/SoC/SoC_probe/cap_array_8b/veriloga/veriloga.va
Reading file:  /home/hee/projects/agriculture-SoC/analog/cadence/notech/SoC/SoC_probe/inverter/veriloga/veriloga.va
Reading file:  /home/hee/projects/agriculture-SoC/analog/cadence/notech/SoC/SoC_probe/ideal_sw/veriloga/veriloga.va
Time for NDB Parsing: CPU = 59.077 ms, elapsed = 467.162 ms.
Time accumulated: CPU = 98.843 ms, elapsed = 467.163 ms.
Peak resident memory used = 177 Mbytes.


Warning from spectre during AHDL read-in.
    WARNING (VACOMP-1142): "./veriloga/veriloga.va", line 205: (Archaic Syntax) Does not comply with the Accellera Verilog-AMS 2.0 Standard and beyond. To comply with the current standard, use `genvar' loop instead of `for', `while', and `repeat' loop statements for the `timer' function.
    WARNING (VACOMP-1142): "./veriloga/veriloga.va", line 216: (Archaic Syntax) Does not comply with the Accellera Verilog-AMS 2.0 Standard and beyond. To comply with the current standard, use `genvar' loop instead of `for', `while', and `repeat' loop statements for the `timer' function.

Created directory ./tb.ahdlSimDB/ (775)
Created directory ./tb.ahdlSimDB//31a9cc73ae2e1c80fadc8727c32d722b.cap_array_8b_tb.ahdlcmi/ (775)
Created directory ./tb.ahdlSimDB//31a9cc73ae2e1c80fadc8727c32d722b.cap_array_8b_tb.ahdlcmi/Linux-64/ (775)
Compiling ahdlcmi module library for cap_array_8b_tb.
Finished compilation in 1.2 s (elapsed) for cap_array_8b_tb.
Installed compiled interface for cap_array_8b_tb.
Opening directory ./tb.ahdlSimDB/ (775)
Created directory ./tb.ahdlSimDB//449275e1088877ba482c37dbb27d1c4d.cap_array_8b.ahdlcmi/ (775)
Created directory ./tb.ahdlSimDB//449275e1088877ba482c37dbb27d1c4d.cap_array_8b.ahdlcmi/Linux-64/ (775)
Compiling ahdlcmi module library for cap_array_8b.
Finished compilation in 706 ms (elapsed) for cap_array_8b.
Installed compiled interface for cap_array_8b.
Opening directory ./tb.ahdlSimDB/ (775)
Created directory ./tb.ahdlSimDB//891f4de7646e834dbed5eae03b3be228.inverter.ahdlcmi/ (775)
Created directory ./tb.ahdlSimDB//891f4de7646e834dbed5eae03b3be228.inverter.ahdlcmi/Linux-64/ (775)
Compiling ahdlcmi module library for inverter.
Finished compilation in 491 ms (elapsed) for inverter.
Installed compiled interface for inverter.
Opening directory ./tb.ahdlSimDB/ (775)
Created directory ./tb.ahdlSimDB//fd7663b4aa2213912973ed524bebb369.ideal_sw.ahdlcmi/ (775)
Created directory ./tb.ahdlSimDB//fd7663b4aa2213912973ed524bebb369.ideal_sw.ahdlcmi/Linux-64/ (775)
Compiling ahdlcmi module library for ideal_sw.
Finished compilation in 375 ms (elapsed) for ideal_sw.
Installed compiled interface for ideal_sw.

Error found by spectre during hierarchy flattening.
    ERROR (SFE-3347): "tb.scs" 10: Cannot bind the terminals of instance `Xtb' because it has 2 terminals, which is more than the maximum limit of 1 terminals specified for its master 'cap_array_8b_tb' defined at line 60 in './veriloga/veriloga.va'. Ensure that the instance has terminals within the defined limit and rerun the simulation.

Time for Elaboration: CPU = 86.208 ms, elapsed = 2.9064 s.
Time accumulated: CPU = 185.152 ms, elapsed = 3.37366 s.
Peak resident memory used = 199 Mbytes.

Licensing Information:
Lic Summary:
[06:58:03.174491] Cdslmd servers:5280@cadence.lic.sydney.edu.au
[06:58:03.174499] Feature usage summary:
[06:58:03.174499] Virtuoso_Multi_mode_Simulation


Aggregate audit (6:58:03 AM, Sun Feb 22, 2026):
Time used: CPU = 186 ms, elapsed = 3.37 s, util. = 5.5%.
Time spent in licensing: elapsed = 377 ms, percentage of total = 11.2%.
Peak memory used = 200 Mbytes.
Simulation started at: 6:58:00 AM, Sun Feb 22, 2026, ended at: 6:58:03 AM, Sun Feb 22, 2026, with elapsed time (wall clock): 3.37 s.
spectre completes with 1 error, 4 warnings, and 0 notices.
spectre terminated prematurely due to fatal error.
